Version 4
SHEET 1 880 680
WIRE 64 0 -96 0
WIRE -96 32 -96 0
WIRE -96 32 -160 32
WIRE -64 32 -96 32
WIRE -160 64 -160 32
WIRE -64 64 -64 32
WIRE 192 96 0 96
WIRE 0 128 0 96
WIRE 0 128 -64 128
WIRE 64 128 64 0
WIRE -160 144 -160 128
WIRE 192 144 -160 144
WIRE -160 176 -160 144
WIRE -64 176 -64 128
WIRE -96 240 -160 240
WIRE -64 240 -96 240
WIRE 64 240 64 208
WIRE -96 336 -96 320
WIRE 64 336 64 320
WIRE 64 336 -96 336
SYMBOL ind 48 112 R0
SYMATTR InstName L1
SYMATTR Value 0.015
SYMATTR SpiceLine Ipk=2 Rser=0
SYMBOL res 48 224 R0
SYMATTR InstName R1
SYMATTR Value 24
SYMATTR SpiceLine tol=10 pwr=35
SYMBOL sw 240 64 R0
SYMATTR InstName S1
SYMBOL diode -48 128 R180
WINDOW 0 24 64 Left 2
WINDOW 3 24 0 Left 2
SYMATTR InstName D1
SYMBOL diode -80 176 R0
SYMATTR InstName D2
SYMBOL diode -144 240 R180
WINDOW 0 24 64 Left 2
WINDOW 3 24 0 Left 2
SYMATTR InstName D3
SYMBOL diode -176 64 R0
SYMATTR InstName D4
SYMBOL res -112 224 R0
SYMATTR InstName R2
SYMATTR Value 16k
SYMATTR SpiceLine tol=1 pwr=1
